31_D
  xed2sdf           3D
 
 40 42  0  0  0  0  0  0  0  0999 V2000
   36.9339   18.4155   10.4147 C   0  0  0  0  0  0  0  0  0  0  0  0
   37.9964   18.7391    9.4138 C   0  0  0  0  0  0  0  0  0  0  0  0
   37.6756   19.6003    8.4574 N   0  0  0  0  0  0  0  0  0  0  0  0
   38.6086   19.9066    7.5530 C   0  0  0  0  0  0  0  0  0  0  0  0
   39.8496   19.3995    7.5267 N   0  0  0  0  0  0  0  0  0  0  0  0
   40.1605   18.5302    8.4796 C   0  0  0  0  0  0  0  0  0  0  0  0
   39.2546   18.1605    9.4777 C   0  0  0  0  0  0  0  0  0  0  0  0
   41.4171   17.9874    8.4520 N   0  0  0  0  0  0  0  0  0  0  0  0
   42.3440   18.2125    7.4825 C   0  0  0  0  0  0  0  0  0  0  0  0
   43.5022   17.6441    7.4723 N   0  0  0  0  0  0  0  0  0  0  0  0
   44.2243   18.0326    6.3897 C   0  0  0  0  0  0  0  0  0  0  0  0
   43.6103   18.9098    5.5631 C   0  0  0  0  0  0  0  0  0  0  0  0
   42.0239   19.2938    6.1509 S   0  0  0  0  0  0  0  0  0  0  0  0
   38.2828   20.8028    6.5994 N   0  0  0  0  0  0  0  0  0  0  0  0
   36.9376   21.3033    6.4728 C   0  0  0  0  0  0  0  0  0  0  0  0
   39.2263   21.1382    5.5672 C   0  0  0  0  0  0  0  0  0  0  0  0
   39.3852   20.0887    4.4935 C   0  0  0  0  0  0  0  0  0  0  0  0
   40.2908   20.3156    3.4585 C   0  0  0  0  0  0  0  0  0  0  0  0
   40.5013   19.3631    2.4865 C   0  0  0  0  0  0  0  0  0  0  0  0
   39.8052   18.1522    2.5265 C   0  0  0  0  0  0  0  0  0  0  0  0
   40.0331   17.1762    1.5303 C   0  0  0  0  0  0  0  0  0  0  0  0
   40.2319   16.3995    0.7114 N   0  0  0  0  0  0  0  0  0  0  0  0
   38.8917   17.9307    3.5589 C   0  0  0  0  0  0  0  0  0  0  0  0
   38.6825   18.8943    4.5304 C   0  0  0  0  0  0  0  0  0  0  0  0
   38.0213   16.4411    3.6287 Cl  0  0  0  0  0  0  0  0  0  0  0  0
   36.7050   17.3517   10.3867 H   0  0  0  0  0  0  0  0  0  0  0  0
   37.2772   18.6610   11.4179 H   0  0  0  0  0  0  0  0  0  0  0  0
   36.0358   18.9830   10.1913 H   0  0  0  0  0  0  0  0  0  0  0  0
   39.5209   17.4541   10.2459 H   0  0  0  0  0  0  0  0  0  0  0  0
   41.6752   17.3232    9.1677 H   0  0  0  0  0  0  0  0  0  0  0  0
   45.2114   17.6267    6.2641 H   0  0  0  0  0  0  0  0  0  0  0  0
   43.9770   19.3484    4.6587 H   0  0  0  0  0  0  0  0  0  0  0  0
   36.9438   22.3957    6.4759 H   0  0  0  0  0  0  0  0  0  0  0  0
   36.4794   20.9559    5.5428 H   0  0  0  0  0  0  0  0  0  0  0  0
   36.3602   20.9425    7.3195 H   0  0  0  0  0  0  0  0  0  0  0  0
   38.9107   22.0811    5.1105 H   0  0  0  0  0  0  0  0  0  0  0  0
   40.2074   21.2905    6.0289 H   0  0  0  0  0  0  0  0  0  0  0  0
   40.8410   21.2437    3.4292 H   0  0  0  0  0  0  0  0  0  0  0  0
   41.2077   19.5336    1.6879 H   0  0  0  0  0  0  0  0  0  0  0  0
   37.9785   18.6943    5.3223 H   0  0  0  0  0  0  0  0  0  0  0  0
  1  2  1  0
  2  3  2  0
  2  7  1  0
  3  4  1  0
  4  5  2  0
  4 14  1  0
  5  6  1  0
  6  7  2  0
  6  8  1  0
  8  9  1  0
  9 10  2  0
  9 13  1  0
 10 11  1  0
 11 12  2  0
 12 13  1  0
 14 15  1  0
 14 16  1  0
 16 17  1  0
 17 18  2  0
 17 24  1  0
 18 19  1  0
 19 20  2  0
 20 21  1  0
 20 23  1  0
 21 22  3  0
 23 24  2  0
 23 25  1  0
  1 26  1  0
  1 27  1  0
  1 28  1  0
  7 29  1  0
  8 30  1  0
 11 31  1  0
 12 32  1  0
 15 33  1  0
 15 34  1  0
 15 35  1  0
 16 36  1  0
 16 37  1  0
 18 38  1  0
 19 39  1  0
 24 40  1  0
M  END
>  <Total Formal Charge>
0

>  <Sim>
0.285

>  <QM_ENERGY>
-69.410341

>  <HOMO>
-0.368745

>  <LUMO>
-0.280019

>  <DIPOLE>
2.393

>  <Favorite_cresset>
false

>  <Protein_cresset>
3ZBF

>  <MW_cresset>
370.9

>  <#Atoms_cresset>
25

>  <SlogP_cresset>
4.2

>  <TPSA_cresset>
77.7

>  <Flexibility_cresset>
2.8

>  <HBA_cresset>
6

>  <HBD_cresset>
1

>  <Rof5_cresset>
0

>  <Confs_cresset>
0

>  <Poses_cresset>
0

$$$$
