conf_17
  xed2sdf           3D
 
 40 42  0  0  0  0  0  0  0  0999 V2000
    4.0893    0.5959   -1.9854 C   0  0  0  0  0  0  0  0  0  0  0  0
    3.2216   -0.6033   -1.7654 C   0  0  0  0  0  0  0  0  0  0  0  0
    2.5573   -0.6575   -0.6190 N   0  0  0  0  0  0  0  0  0  0  0  0
    1.7772   -1.7265   -0.4086 C   0  0  0  0  0  0  0  0  0  0  0  0
    1.6070   -2.7322   -1.2705 N   0  0  0  0  0  0  0  0  0  0  0  0
    2.2676   -2.6699   -2.4089 C   0  0  0  0  0  0  0  0  0  0  0  0
    3.1156   -1.6031   -2.7227 C   0  0  0  0  0  0  0  0  0  0  0  0
    2.1020   -3.7024   -3.3084 N   0  0  0  0  0  0  0  0  0  0  0  0
    1.3160   -4.7966   -3.1359 C   0  0  0  0  0  0  0  0  0  0  0  0
    0.5756   -5.0798   -2.1291 N   0  0  0  0  0  0  0  0  0  0  0  0
   -0.0730   -6.2583   -2.2979 C   0  0  0  0  0  0  0  0  0  0  0  0
    0.1666   -6.9078   -3.4611 C   0  0  0  0  0  0  0  0  0  0  0  0
    1.2766   -6.0092   -4.4342 S   0  0  0  0  0  0  0  0  0  0  0  0
    1.1300   -1.8151    0.7687 N   0  0  0  0  0  0  0  0  0  0  0  0
    0.1831   -2.8729    1.0158 C   0  0  0  0  0  0  0  0  0  0  0  0
    1.2157   -0.7505    1.7436 C   0  0  0  0  0  0  0  0  0  0  0  0
    0.0503    0.1964    1.6129 C   0  0  0  0  0  0  0  0  0  0  0  0
   -0.0056    1.0673    0.5271 C   0  0  0  0  0  0  0  0  0  0  0  0
   -1.0845    1.9085    0.3603 C   0  0  0  0  0  0  0  0  0  0  0  0
   -2.1360    1.8950    1.2809 C   0  0  0  0  0  0  0  0  0  0  0  0
   -3.2367    2.7642    1.1045 C   0  0  0  0  0  0  0  0  0  0  0  0
   -4.1208    3.4761    0.9473 N   0  0  0  0  0  0  0  0  0  0  0  0
   -2.0801    1.0184    2.3672 C   0  0  0  0  0  0  0  0  0  0  0  0
   -0.9941    0.1745    2.5274 C   0  0  0  0  0  0  0  0  0  0  0  0
   -3.3738    0.9884    3.5120 Cl  0  0  0  0  0  0  0  0  0  0  0  0
    3.7652    1.1365   -2.8731 H   0  0  0  0  0  0  0  0  0  0  0  0
    5.1222    0.2876   -2.1363 H   0  0  0  0  0  0  0  0  0  0  0  0
    4.0336    1.2531   -1.1227 H   0  0  0  0  0  0  0  0  0  0  0  0
    3.6532   -1.5553   -3.6553 H   0  0  0  0  0  0  0  0  0  0  0  0
    2.6188   -3.6438   -4.1737 H   0  0  0  0  0  0  0  0  0  0  0  0
   -0.7258   -6.6016   -1.5162 H   0  0  0  0  0  0  0  0  0  0  0  0
   -0.2255   -7.8398   -3.8118 H   0  0  0  0  0  0  0  0  0  0  0  0
    0.4274   -3.3754    1.9545 H   0  0  0  0  0  0  0  0  0  0  0  0
    0.2439   -3.5802    0.1918 H   0  0  0  0  0  0  0  0  0  0  0  0
   -0.8328   -2.4736    1.0819 H   0  0  0  0  0  0  0  0  0  0  0  0
    2.1491   -0.2150    1.5570 H   0  0  0  0  0  0  0  0  0  0  0  0
    1.2353   -1.1959    2.7424 H   0  0  0  0  0  0  0  0  0  0  0  0
    0.8091    1.0702   -0.1805 H   0  0  0  0  0  0  0  0  0  0  0  0
   -1.1327    2.5883   -0.4773 H   0  0  0  0  0  0  0  0  0  0  0  0
   -0.9674   -0.4956    3.3730 H   0  0  0  0  0  0  0  0  0  0  0  0
  1  2  1  0
  2  3  2  0
  2  7  1  0
  3  4  1  0
  4  5  2  0
  4 14  1  0
  5  6  1  0
  6  7  2  0
  6  8  1  0
  8  9  1  0
  9 10  2  0
  9 13  1  0
 10 11  1  0
 11 12  2  0
 12 13  1  0
 14 15  1  0
 14 16  1  0
 16 17  1  0
 17 18  2  0
 17 24  1  0
 18 19  1  0
 19 20  2  0
 20 21  1  0
 20 23  1  0
 21 22  3  0
 23 24  2  0
 23 25  1  0
  1 26  1  0
  1 27  1  0
  1 28  1  0
  7 29  1  0
  8 30  1  0
 11 31  1  0
 12 32  1  0
 15 33  1  0
 15 34  1  0
 15 35  1  0
 16 36  1  0
 16 37  1  0
 18 38  1  0
 19 39  1  0
 24 40  1  0
M  END
>  <Total Formal Charge>
0

>  <QM_ENERGY>
-1843.948526

>  <HOMO>
-0.21702

>  <LUMO>
-0.064704

>  <DIPOLE>
7.414

>  <Favorite_cresset>
false

>  <MW_cresset>
370.9

>  <#Atoms_cresset>
25

>  <SlogP_cresset>
4.2

>  <TPSA_cresset>
77.7

>  <Flexibility_cresset>
2.8

>  <HBA_cresset>
6

>  <HBD_cresset>
1

>  <Rof5_cresset>
0

>  <Confs_cresset>
0

>  <Poses_cresset>
0

>  <_cresset_fieldpoints2>
 2
    -5       4.228882      -0.350901       0.575379     -7.4737
    -5      -0.107540      -3.405937      -1.148585    -16.7893
    -5       1.316940      -4.495632      -0.653568    -13.3024
    -5      -6.133427       3.773385       0.398846    -14.4215
    -6       0.661736       3.502872      -1.470006      3.6168
    -6       3.567451      -2.717045      -5.466320     11.7796
    -6      -2.079391      -9.221187      -3.558494      2.6604
    -6       0.059509      -1.869272       4.484521      5.3900
    -6      -1.390263       3.859636       3.129047      1.4384
    -7       3.416321       2.110864       0.768359     -2.2352
    -7       4.762436      -0.034229       1.015972     -2.0417
    -7       0.593464      -2.268856      -5.351049     -1.7462
    -7       5.166176      -2.772650      -0.238777     -1.5530
    -7       4.430866      -5.063726      -3.256987     -1.6945
    -7       5.869781      -1.112337      -4.412345     -1.3656
    -7       3.836346      -2.684778       2.361651     -1.6955
    -7       2.809166      -7.128608      -1.683977     -1.4502
    -7      -2.652607      -8.852950      -2.233061     -0.8386
    -7      -1.605228      -3.720904      -4.733752     -1.4502
    -7       0.667450      -8.693408      -6.179159     -0.9438
    -7      -1.161617      -1.378788      -1.041891     -3.2719
    -7       2.660480      -5.261979      -0.343534     -2.1541
    -7       0.167194      -1.949672       4.897776     -1.7303
    -7      -0.328949       3.073438       3.668764     -1.9481
    -7      -1.260231      -5.450729       0.786560     -1.3453
    -7      -2.832367       3.042953       4.187746     -1.6341
    -7      -1.022152      -2.125061      -1.385767     -2.9017
    -8       3.679787      -0.413925      -2.710388      4.6534
    -8      -1.026695       0.955414       1.364463      6.8985
    -8       0.173595      -3.527949       1.721671      2.5802
    -8       0.310745      -6.122966      -3.569703      5.1513
    -8      -2.442348       0.594510       2.175840      5.4521

$$$$
